# generated using pymatgen
data_H4C7SN2
_symmetry_space_group_name_H-M   'P 1'
_cell_length_a   15.97382500
_cell_length_b   15.97382500
_cell_length_c   15.97382500
_cell_angle_alpha   90.00000000
_cell_angle_beta   90.00000000
_cell_angle_gamma   90.00000000
_symmetry_Int_Tables_number   1
_chemical_formula_structural   H4C7SN2
_chemical_formula_sum   'H48 C84 S12 N24'
_cell_volume   4075.93046834
_cell_formula_units_Z   12
loop_
 _symmetry_equiv_pos_site_id
 _symmetry_equiv_pos_as_xyz
  1  'x, y, z'
loop_
 _atom_site_type_symbol
 _atom_site_label
 _atom_site_symmetry_multiplicity
 _atom_site_fract_x
 _atom_site_fract_y
 _atom_site_fract_z
 _atom_site_occupancy
  H  H0  1  0.02800000  0.33640000  0.59560000  1
  H  H1  1  0.10760000  0.21800000  0.59240000  1
  H  H2  1  0.21640000  0.20640000  0.49160000  1
  H  H3  1  0.14800000  0.43400000  0.40520000  1
  H  H4  1  0.97200000  0.66360000  0.59560000  1
  H  H5  1  0.89240000  0.78200000  0.59240000  1
  H  H6  1  0.78360000  0.79360000  0.49160000  1
  H  H7  1  0.85200000  0.56600000  0.40520000  1
  H  H8  1  0.97200000  0.33640000  0.40440000  1
  H  H9  1  0.89240000  0.21800000  0.40760000  1
  H  H10  1  0.78360000  0.20640000  0.50840000  1
  H  H11  1  0.85200000  0.43400000  0.59480000  1
  H  H12  1  0.02800000  0.66360000  0.40440000  1
  H  H13  1  0.10760000  0.78200000  0.40760000  1
  H  H14  1  0.21640000  0.79360000  0.50840000  1
  H  H15  1  0.14800000  0.56600000  0.59480000  1
  H  H16  1  0.59560000  0.02800000  0.33640000  1
  H  H17  1  0.59240000  0.10760000  0.21800000  1
  H  H18  1  0.49160000  0.21640000  0.20640000  1
  H  H19  1  0.40520000  0.14800000  0.43400000  1
  H  H20  1  0.59560000  0.97200000  0.66360000  1
  H  H21  1  0.59240000  0.89240000  0.78200000  1
  H  H22  1  0.49160000  0.78360000  0.79360000  1
  H  H23  1  0.40520000  0.85200000  0.56600000  1
  H  H24  1  0.40440000  0.97200000  0.33640000  1
  H  H25  1  0.40760000  0.89240000  0.21800000  1
  H  H26  1  0.50840000  0.78360000  0.20640000  1
  H  H27  1  0.59480000  0.85200000  0.43400000  1
  H  H28  1  0.40440000  0.02800000  0.66360000  1
  H  H29  1  0.40760000  0.10760000  0.78200000  1
  H  H30  1  0.50840000  0.21640000  0.79360000  1
  H  H31  1  0.59480000  0.14800000  0.56600000  1
  H  H32  1  0.33640000  0.59560000  0.02800000  1
  H  H33  1  0.21800000  0.59240000  0.10760000  1
  H  H34  1  0.20640000  0.49160000  0.21640000  1
  H  H35  1  0.43400000  0.40520000  0.14800000  1
  H  H36  1  0.66360000  0.59560000  0.97200000  1
  H  H37  1  0.78200000  0.59240000  0.89240000  1
  H  H38  1  0.79360000  0.49160000  0.78360000  1
  H  H39  1  0.56600000  0.40520000  0.85200000  1
  H  H40  1  0.33640000  0.40440000  0.97200000  1
  H  H41  1  0.21800000  0.40760000  0.89240000  1
  H  H42  1  0.20640000  0.50840000  0.78360000  1
  H  H43  1  0.43400000  0.59480000  0.85200000  1
  H  H44  1  0.66360000  0.40440000  0.02800000  1
  H  H45  1  0.78200000  0.40760000  0.10760000  1
  H  H46  1  0.79360000  0.50840000  0.21640000  1
  H  H47  1  0.56600000  0.59480000  0.14800000  1
  C  C48  1  0.07052000  0.33204000  0.55448000  1
  C  C49  1  0.11760000  0.26160000  0.55336000  1
  C  C50  1  0.18120000  0.25440000  0.49332000  1
  C  C51  1  0.19132000  0.31936000  0.43696000  1
  C  C52  1  0.14008000  0.38924000  0.44340000  1
  C  C53  1  0.25764000  0.31632000  0.37208000  1
  C  C54  1  0.00236000  0.50444000  0.29912000  1
  C  C55  1  0.92948000  0.66796000  0.55448000  1
  C  C56  1  0.88240000  0.73840000  0.55336000  1
  C  C57  1  0.81880000  0.74560000  0.49332000  1
  C  C58  1  0.80868000  0.68064000  0.43696000  1
  C  C59  1  0.85992000  0.61076000  0.44340000  1
  C  C60  1  0.74236000  0.68368000  0.37208000  1
  C  C61  1  0.99764000  0.49556000  0.29912000  1
  C  C62  1  0.92948000  0.33204000  0.44552000  1
  C  C63  1  0.88240000  0.26160000  0.44664000  1
  C  C64  1  0.81880000  0.25440000  0.50668000  1
  C  C65  1  0.80868000  0.31936000  0.56304000  1
  C  C66  1  0.85992000  0.38924000  0.55660000  1
  C  C67  1  0.74236000  0.31632000  0.62792000  1
  C  C68  1  0.99764000  0.50444000  0.70088000  1
  C  C69  1  0.07052000  0.66796000  0.44552000  1
  C  C70  1  0.11760000  0.73840000  0.44664000  1
  C  C71  1  0.18120000  0.74560000  0.50668000  1
  C  C72  1  0.19132000  0.68064000  0.56304000  1
  C  C73  1  0.14008000  0.61076000  0.55660000  1
  C  C74  1  0.25764000  0.68368000  0.62792000  1
  C  C75  1  0.00236000  0.49556000  0.70088000  1
  C  C76  1  0.55448000  0.07052000  0.33204000  1
  C  C77  1  0.55336000  0.11760000  0.26160000  1
  C  C78  1  0.49332000  0.18120000  0.25440000  1
  C  C79  1  0.43696000  0.19132000  0.31936000  1
  C  C80  1  0.44340000  0.14008000  0.38924000  1
  C  C81  1  0.37208000  0.25764000  0.31632000  1
  C  C82  1  0.29912000  0.00236000  0.50444000  1
  C  C83  1  0.55448000  0.92948000  0.66796000  1
  C  C84  1  0.55336000  0.88240000  0.73840000  1
  C  C85  1  0.49332000  0.81880000  0.74560000  1
  C  C86  1  0.43696000  0.80868000  0.68064000  1
  C  C87  1  0.44340000  0.85992000  0.61076000  1
  C  C88  1  0.37208000  0.74236000  0.68368000  1
  C  C89  1  0.29912000  0.99764000  0.49556000  1
  C  C90  1  0.44552000  0.92948000  0.33204000  1
  C  C91  1  0.44664000  0.88240000  0.26160000  1
  C  C92  1  0.50668000  0.81880000  0.25440000  1
  C  C93  1  0.56304000  0.80868000  0.31936000  1
  C  C94  1  0.55660000  0.85992000  0.38924000  1
  C  C95  1  0.62792000  0.74236000  0.31632000  1
  C  C96  1  0.70088000  0.99764000  0.50444000  1
  C  C97  1  0.44552000  0.07052000  0.66796000  1
  C  C98  1  0.44664000  0.11760000  0.73840000  1
  C  C99  1  0.50668000  0.18120000  0.74560000  1
  C  C100  1  0.56304000  0.19132000  0.68064000  1
  C  C101  1  0.55660000  0.14008000  0.61076000  1
  C  C102  1  0.62792000  0.25764000  0.68368000  1
  C  C103  1  0.70088000  0.00236000  0.49556000  1
  C  C104  1  0.33204000  0.55448000  0.07052000  1
  C  C105  1  0.26160000  0.55336000  0.11760000  1
  C  C106  1  0.25440000  0.49332000  0.18120000  1
  C  C107  1  0.31936000  0.43696000  0.19132000  1
  C  C108  1  0.38924000  0.44340000  0.14008000  1
  C  C109  1  0.31632000  0.37208000  0.25764000  1
  C  C110  1  0.50444000  0.29912000  0.00236000  1
  C  C111  1  0.66796000  0.55448000  0.92948000  1
  C  C112  1  0.73840000  0.55336000  0.88240000  1
  C  C113  1  0.74560000  0.49332000  0.81880000  1
  C  C114  1  0.68064000  0.43696000  0.80868000  1
  C  C115  1  0.61076000  0.44340000  0.85992000  1
  C  C116  1  0.68368000  0.37208000  0.74236000  1
  C  C117  1  0.49556000  0.29912000  0.99764000  1
  C  C118  1  0.33204000  0.44552000  0.92948000  1
  C  C119  1  0.26160000  0.44664000  0.88240000  1
  C  C120  1  0.25440000  0.50668000  0.81880000  1
  C  C121  1  0.31936000  0.56304000  0.80868000  1
  C  C122  1  0.38924000  0.55660000  0.85992000  1
  C  C123  1  0.31632000  0.62792000  0.74236000  1
  C  C124  1  0.50444000  0.70088000  0.99764000  1
  C  C125  1  0.66796000  0.44552000  0.07052000  1
  C  C126  1  0.73840000  0.44664000  0.11760000  1
  C  C127  1  0.74560000  0.50668000  0.18120000  1
  C  C128  1  0.68064000  0.56304000  0.19132000  1
  C  C129  1  0.61076000  0.55660000  0.14008000  1
  C  C130  1  0.68368000  0.62792000  0.25764000  1
  C  C131  1  0.49556000  0.70088000  0.00236000  1
  S  S132  1  0.00864000  0.49384000  0.19712000  1
  S  S133  1  0.99136000  0.50616000  0.19712000  1
  S  S134  1  0.99136000  0.49384000  0.80288000  1
  S  S135  1  0.00864000  0.50616000  0.80288000  1
  S  S136  1  0.19712000  0.00864000  0.49384000  1
  S  S137  1  0.19712000  0.99136000  0.50616000  1
  S  S138  1  0.80288000  0.99136000  0.49384000  1
  S  S139  1  0.80288000  0.00864000  0.50616000  1
  S  S140  1  0.49384000  0.19712000  0.00864000  1
  S  S141  1  0.50616000  0.19712000  0.99136000  1
  S  S142  1  0.49384000  0.80288000  0.99136000  1
  S  S143  1  0.50616000  0.80288000  0.00864000  1
  N  N144  1  0.08036000  0.39588000  0.50096000  1
  N  N145  1  0.31324000  0.25588000  0.37712000  1
  N  N146  1  0.91964000  0.60412000  0.50096000  1
  N  N147  1  0.68676000  0.74412000  0.37712000  1
  N  N148  1  0.91964000  0.39588000  0.49904000  1
  N  N149  1  0.68676000  0.25588000  0.62288000  1
  N  N150  1  0.08036000  0.60412000  0.49904000  1
  N  N151  1  0.31324000  0.74412000  0.62288000  1
  N  N152  1  0.50096000  0.08036000  0.39588000  1
  N  N153  1  0.37712000  0.31324000  0.25588000  1
  N  N154  1  0.50096000  0.91964000  0.60412000  1
  N  N155  1  0.37712000  0.68676000  0.74412000  1
  N  N156  1  0.49904000  0.91964000  0.39588000  1
  N  N157  1  0.62288000  0.68676000  0.25588000  1
  N  N158  1  0.49904000  0.08036000  0.60412000  1
  N  N159  1  0.62288000  0.31324000  0.74412000  1
  N  N160  1  0.39588000  0.50096000  0.08036000  1
  N  N161  1  0.25588000  0.37712000  0.31324000  1
  N  N162  1  0.60412000  0.50096000  0.91964000  1
  N  N163  1  0.74412000  0.37712000  0.68676000  1
  N  N164  1  0.39588000  0.49904000  0.91964000  1
  N  N165  1  0.25588000  0.62288000  0.68676000  1
  N  N166  1  0.60412000  0.49904000  0.08036000  1
  N  N167  1  0.74412000  0.62288000  0.31324000  1
